tests/src/test/resources/files/cases/flowbased_computation/3nodes_pst2.uct
##C 2007.05.01
Date of situation : 2014/01/16 08:30
##N
##ZBE
BBE1AA1  BE1          0 2 400.00    0.00 0.00000  -500.00 0.00000 0000.00 -1500.0 9000.00 -9000.0
BBE2AA1  BE2          0 2 400.00    0.00 0.00000      0.0 0.00000 9000.00     0.0 9000.00 -9000.0
##ZDE
DDE1AA1  DE1          0 2 400.00 1000.00 0.00000     -0.0 0.00000 0000.00     0.0 9000.00 -9000.0
##ZFR
FFR1AA1  FR1          0 2 400.00    0.00 0.00000   -500.0 0.00000 0000.00 -1500.0 9000.00 -9000.0
##L
BBE2AA1  DDE1AA1  1 0 0.0000 10.000 0.000000   5000
BBE1AA1  FFR1AA1  1 0 0.0000 10.000 0.000000   5000
DDE1AA1  FFR1AA1  1 0 0.0000 10.000 0.000000   5000
BBE1AA1  FFR1AA1  2 0 0.0000 10.000 0.000000   5000
DDE1AA1  FFR1AA1  2 0 0.0000 10.000 0.000000   5000
##T
BBE1AA1  BBE2AA1  1 0 400.0 400.0 0.000 0.0000 1.0000 0.000000 0.0000 5000
##R
BBE1AA1  BBE2AA1  1                    0.761 90.00 23  0        SYMM
